Circuit: * C:\Users\Maria\OneDrive - Politechnika Warszawska\projekty\samochodzik\Draft1.asc

Direct Newton iteration for .op point succeeded.

Date: Thu Feb 13 20:21:46 2025
Total elapsed time: 0.034 seconds.

tnom = 27
temp = 27
method = modified trap
totiter = 97
traniter = 74
tranpoints = 38
accept = 38
rejected = 0
matrix size = 6
fillins = 1
solver = Normal
Avg thread counts: 12.0/12.0/12.0/12.0
Matrix Compiler1: 272 bytes object code size
Matrix Compiler2: 476 bytes object code size  0.1/0.1/[0.1]

